QRU
     RDKit          3D

 29 32  0  0  0  0  0  0  0  0999 V2000
  -49.7390  -29.0190    6.5240 C   0  0  0  0  0  0  0  0  0  0  0  0
  -49.8310  -29.1070    4.1400 C   0  0  0  0  0  0  0  0  0  0  0  0
  -50.4970  -29.0720    5.3590 C   0  0  0  0  0  0  0  0  0  0  0  0
  -48.4450  -29.0970    4.1170 C   0  0  0  0  0  0  0  0  0  0  0  0
  -47.7820  -29.1950    2.7490 C   0  0  0  0  0  0  0  0  0  0  0  0
  -45.6900  -29.6890    1.4750 C   0  0  1  0  0  0  0  0  0  0  0  0
  -45.5240  -28.3580    0.7540 C   0  0  0  0  0  0  0  0  0  0  0  0
  -46.4620  -27.6160    0.0280 C   0  0  0  0  0  0  0  0  0  0  0  0
  -51.7210  -29.1020    8.1160 C   0  0  0  0  0  0  0  0  0  0  0  0
  -44.1990  -31.1670    2.8010 C   0  0  0  0  0  0  0  0  0  0  0  0
  -44.2750  -30.1910    1.6370 C   0  0  2  0  0  0  0  0  0  0  0  0
  -43.4330  -28.9220    1.8000 C   0  0  0  0  0  0  0  0  0  0  0  0
  -44.2260  -27.9000    0.9460 C   0  0  0  0  0  0  0  0  0  0  0  0
  -43.8630  -26.6710    0.3850 C   0  0  0  0  0  0  0  0  0  0  0  0
  -44.8040  -25.9500   -0.3380 C   0  0  0  0  0  0  0  0  0  0  0  0
  -46.0890  -26.4110   -0.5260 C   0  0  0  0  0  0  0  0  0  0  0  0
  -53.3120  -29.2480   10.0250 C   0  0  2  0  0  0  0  0  0  0  0  0
  -53.3800  -29.1550   11.5440 C   0  0  0  0  0  0  0  0  0  0  0  0
  -53.6510  -30.4910   10.8480 C   0  0  0  0  0  0  0  0  0  0  0  0
  -48.3570  -29.0240    6.5000 C   0  0  0  0  0  0  0  0  0  0  0  0
  -47.6950  -29.0760    5.2880 C   0  0  0  0  0  0  0  0  0  0  0  0
  -46.3610  -29.5050    2.7430 N   0  0  0  0  0  0  0  0  0  0  0  0
  -50.3150  -29.0460    7.8380 N   0  0  0  0  0  0  0  0  0  0  0  0
  -51.9570  -29.2160    9.5120 N   0  0  0  0  0  0  0  0  0  0  0  0
  -43.7810  -30.7670    3.9190 O   0  0  0  0  0  0  0  0  0  0  0  0
  -42.5780  -26.1380    0.5300 O   0  0  0  0  0  0  0  0  0  0  0  0
  -52.5830  -29.0310    7.3190 O   0  0  0  0  0  0  0  0  0  0  0  0
  -48.4100  -29.1260    1.7430 O   0  0  0  0  0  0  0  0  0  0  0  0
  -44.5460  -32.3730    2.6250 O   0  0  0  0  0  0  0  0  0  0  0  0
  1  3  1  0
  2  3  2  0
  2  4  1  0
  4  5  1  0
  6  7  1  0
  7  8  2  0
  6 11  1  0
 11 10  1  1
 11 12  1  0
  7 13  1  0
 12 13  1  0
 13 14  2  0
 14 15  1  0
  8 16  1  0
 15 16  2  0
 17 18  1  0
 17 19  1  0
 18 19  1  0
  1 20  2  0
  4 21  2  0
 20 21  1  0
  5 22  1  0
  6 22  1  1
  1 23  1  0
  9 23  1  0
  9 24  1  0
 17 24  1  1
 10 25  2  0
 14 26  1  0
  9 27  2  0
  5 28  2  0
 10 29  1  0
M  CHG  1  29  -1
M  END
